[General]
network = SimpleNetwork
sim-time-limit = 100s

*.nodeA.packetGenerationInterval = 0.5s
*.nodeB.packetGenerationInterval = 0.5s
*.nodeA.numPowerLevels=2
*.nodeB.numPowerLevels= 4
